STAAD SPACE
START JOB INFORMATION
ENGINEER DATE 12-Nov-25
END JOB INFORMATION
INPUT WIDTH 79
UNIT METER KN
JOINT COORDINATES
1 0 0 0; 2 3.73 0 0; 3 8.06 0 0; 4 12.79 0 0; 5 17.52 0 0; 6 0 3.2 0;
7 3.73 3.2 0; 8 8.06 3.2 0; 9 12.79 3.2 0; 10 17.52 3.2 0; 11 0 6.4 0;
12 3.73 6.4 0; 13 8.06 6.4 0; 14 12.79 6.4 0; 15 17.52 6.4 0; 16 0 0 3.83;
17 3.73 0 3.83; 18 8.06 0 3.83; 19 12.79 0 3.83; 20 17.52 0 3.83;
21 0 3.2 3.83; 22 3.73 3.2 3.83; 23 8.06 3.2 3.83; 24 12.79 3.2 3.83;
25 17.52 3.2 3.83; 26 0 6.4 3.83; 27 3.73 6.4 3.83; 28 8.06 6.4 3.83;
29 12.79 6.4 3.83; 30 17.52 6.4 3.83; 31 0 0 6.17; 32 3.73 0 6.17;
33 8.06 0 6.17; 34 12.79 0 6.17; 35 17.52 0 6.17; 36 0 3.2 6.17;
37 3.73 3.2 6.17; 38 8.06 3.2 6.17; 39 12.79 3.2 6.17; 40 17.52 3.2 6.17;
41 0 6.4 6.17; 42 3.73 6.4 6.17; 43 8.06 6.4 6.17; 44 12.79 6.4 6.17;
45 17.52 6.4 6.17; 46 0 0 11; 47 3.73 0 11; 48 8.06 0 11; 49 12.79 0 11;
50 17.52 0 11; 51 0 3.2 11; 52 3.73 3.2 11; 53 8.06 3.2 11; 54 12.79 3.2 11;
55 17.52 3.2 11; 56 0 6.4 11; 57 3.73 6.4 11; 58 8.06 6.4 11; 59 12.79 6.4 11;
60 17.52 6.4 11; 61 0 6.4 9.035; 62 3.73 6.4 9.035; 63 2.395 6.4 6.17;
64 2.395 6.4 9.035; 65 0 3.2 9.035; 66 3.73 3.2 9.035; 67 2.395 3.2 6.17;
68 2.395 3.2 9.035; 69 0 9.6 6.17; 70 3.73 9.6 6.17; 71 0 9.6 11;
72 3.73 9.6 11; 73 2.395 0 6.17; 74 0 0 9.035; 75 3.73 0 9.035;
76 2.395 0 9.035; 77 0 -1.2 0; 78 3.73 -1.2 0; 79 8.06 -1.2 0; 80 12.79 -1.2 0;
81 17.52 -1.2 0; 82 0 -1.2 3.83; 83 3.73 -1.2 3.83; 84 8.06 -1.2 3.83;
85 12.79 -1.2 3.83; 86 17.52 -1.2 3.83; 87 0 -1.2 6.17; 88 3.73 -1.2 6.17;
# ... 10 like lines cut
MEMBER INCIDENCES
1 6 7; 2 7 8; 3 8 9; 4 9 10; 5 11 12; 6 12 13; 7 13 14; 8 14 15; 9 1 6; 10 2 7;
11 3 8; 12 4 9; 13 5 10; 14 6 11; 15 7 12; 16 8 13; 17 9 14; 18 10 15;
19 21 22; 20 22 23; 21 23 24; 22 24 25; 23 26 27; 24 27 28; 25 28 29; 26 29 30;
27 16 21; 28 17 22; 29 18 23; 30 19 24; 31 20 25; 32 21 26; 33 22 27; 34 23 28;
35 24 29; 36 25 30; 37 36 67; 38 37 38; 39 38 39; 40 39 40; 41 41 63; 42 42 43;
43 43 44; 44 44 45; 45 31 36; 46 32 37; 47 33 38; 48 34 39; 49 35 40; 50 36 41;
51 37 42; 52 38 43; 53 39 44; 54 40 45; 55 51 52; 56 52 53; 57 53 54; 58 54 55;
59 56 57; 60 57 58; 61 58 59; 62 59 60; 63 46 51; 64 47 52; 65 48 53; 66 49 54;
67 50 55; 68 51 56; 69 52 57; 70 53 58; 71 54 59; 72 55 60; 73 6 21; 74 7 22;
75 8 23; 76 9 24; 77 10 25; 78 11 26; 79 12 27; 80 13 28; 81 14 29; 82 15 30;
83 21 36; 84 22 37; 85 23 38; 86 24 39; 87 25 40; 88 26 41; 89 27 42; 90 28 43;
91 29 44; 92 30 45; 93 36 65; 94 37 66; 95 38 53; 96 39 54; 97 40 55; 98 41 61;
99 42 62; 100 43 58; 101 44 59; 102 45 60; 103 61 56; 104 62 57; 105 61 64;
106 63 42; 107 64 62; 108 63 64; 109 65 51; 110 66 52; 111 67 37; 112 67 68;
113 65 66; 114 71 69; 115 69 70; 116 71 72; 117 70 72; 118 69 41; 119 71 56;
120 72 57; 121 70 42; 149 1 2; 150 2 3; 151 3 4; 152 4 5; 153 16 17; 154 17 18;
155 18 19; 156 19 20; 157 31 73; 158 32 33; 159 33 34; 160 34 35; 161 46 47;
162 47 48; 163 48 49; 164 49 50; 165 1 16; 166 2 17; 167 3 18; 168 4 19;
169 5 20; 170 16 31; 171 17 32; 172 18 33; 173 19 34; 174 20 35; 175 31 74;
176 32 75; 177 33 48; 178 34 49; 179 35 50; 180 74 46; 181 75 47; 182 73 32;
# ... 13 like lines cut
ELEMENT INCIDENCES SHELL
122 70 69 71 72; 123 12 11 26 27; 124 27 26 41 42; 125 13 12 27 28;
126 14 13 28 29; 127 15 14 29 30; 128 28 27 42 43; 129 29 28 43 44;
130 30 29 44 45; 131 42 63 64 62; 132 62 61 56 57; 133 43 42 57 58;
134 44 43 58 59; 135 45 44 59 60; 136 40 39 54 55; 137 39 38 53 54;
138 38 37 52 53; 139 37 67 68 66; 140 66 65 51 52; 141 22 21 36 37;
142 23 22 37 38; 143 24 23 38 39; 144 25 24 39 40; 145 10 9 24 25;
146 9 8 23 24; 147 8 7 22 23; 148 7 6 21 22; 256 126 125 11 12;
257 127 126 12 13; 258 128 127 13 14; 259 118 128 14 15; 260 119 118 15 124;
261 124 15 30 123; 262 123 30 45 122; 263 122 45 60 121; 264 121 60 116 120;
265 60 59 115 116; 266 59 58 117 115; 267 58 57 114 117; 268 57 56 113 114;
269 52 51 97 98; 270 53 52 98 99; 271 54 53 99 100; 273 40 55 110 109;
274 25 40 109 108; 275 10 25 108 107; 276 106 10 107 112; 277 105 9 10 106;
278 104 8 9 105; 279 103 7 8 104; 280 102 6 7 103; 281 55 54 100 101;
282 110 55 101 111;
ELEMENT PROPERTY
122 TO 148 256 TO 271 273 TO 282 THICKNESS 0.15
DEFINE MATERIAL START
ISOTROPIC CONCRETE
E 2.17185e+07
POISSON 0.17
DENSITY 23.5616
ALPHA 1e-05
DAMP 0.05
G 9.28139e+06
TYPE CONCRETE
STRENGTH FCU 27579
END DEFINE MATERIAL
MEMBER PROPERTY
1 TO 8 19 TO 26 37 TO 44 55 TO 62 73 TO 117 149 TO 184 283 TO 339 -
340 PRIS YD 0.23 ZD 0.23
9 TO 18 27 TO 36 45 TO 54 63 TO 72 118 TO 121 185 TO 204 PRIS YD 0.23 ZD 0.23
CONSTANTS
MATERIAL CONCRETE ALL
SUPPORTS
77 TO 96 FIXED
LOAD 1 LOADTYPE Dead  TITLE DL
SELFWEIGHT Y -1 LIST ALL
ELEMENT LOAD
122 TO 148 256 TO 271 273 TO 282 PR -1
MEMBER LOAD
1 TO 4 19 TO 22 37 TO 40 55 TO 58 73 TO 77 83 TO 87 93 TO 97 109 TO 112 -
113 UNI GY -14.72
283 296 TO 300 313 TO 340 UNI GY -4.6
LOAD 2 LOADTYPE Live  TITLE LL
ELEMENT LOAD
122 TO 148 256 TO 271 273 TO 282 PR -2.5
LOAD COMB 3 COMB - 1.5 DEAD + 1.5 LIVE
1 1.5 2 1.5 
PERFORM ANALYSIS PRINT ALL
FINISH
